/batch
/config,noeldb,1     ! force off writing results to database
*get,_wallstrt,active,,time,wall
! ANSYS input file written by Workbench version 2026 R1
! File used for geometry attach: C:\Users\tasle\Documents\PersonalProjects\FSAE\GOGO_FSAE_CAD\FEA\suspension_analysis_files\dp0\SYS\DM\SYS.scdocx
/title,suspension_analysis--Static Structural (A5)
! ****** Begin Custom Load Command Snippet ******
/COM, ACT Extensions:
/COM,     LSDYNA, 2026.1
/COM,     5f463412-bd3e-484b-87e7-cbc0a665e474, wbex
/COM,     ANSYSMotion, 2026.1
/COM,     20180725-3f81-49eb-9f31-41364844c769, wbex
! ****** End   Custom Load Command Snippet ******
*DIM,_wb_ProjectScratch_dir,string,248
_wb_ProjectScratch_dir(1) = 'C:\Users\tasle\Documents\PersonalProjects\FSAE\GOGO_FSAE_CAD\FEA\_ProjectScratch\ScrE697\'
*DIM,_wb_SolverFiles_dir,string,248
_wb_SolverFiles_dir(1) = 'C:\Users\tasle\Documents\PersonalProjects\FSAE\GOGO_FSAE_CAD\FEA\suspension_analysis_files\dp0\SYS\MECH\'
*DIM,_wb_userfiles_dir,string,248
_wb_userfiles_dir(1) = 'C:\Users\tasle\Documents\PersonalProjects\FSAE\GOGO_FSAE_CAD\FEA\suspension_analysis_files\user_files\'
/com,--- Data in consistent MKS units. See Solving Units in the help system for more information.
/units,MKS
/nopr
/wb,file,start              !  signify a WB generated input file
/prep7
! Turn off shape checking because checks already performed inside WB mesher.
! See help system for more information.
SHPP,OFF,,NOWARN
/nolist
etcon,set             ! allow ANSYS to choose best KEYOP's for 180x elements, resets any applicable keyopt to MAPDL defaults
/com,*********** Send User Defined Coordinate System(s) ***********
local,12,0,0.653457,-0.481212,0.177461,0.,0.,0.
local,13,0,0.668697,-0.330312,0.175661,0.,0.,0.
local,14,0,0.668457,-0.331212,-0.222539,0.,0.,0.
local,15,0,0.656157,-0.481212,-0.222539,0.,0.,0.
local,16,0,0.203457,-0.481212,0.177461,0.,0.,0.
local,17,0,0.188217,-0.330312000000001,0.175661000000001,0.,0.,0.
local,18,0,0.188457,-0.331211999999998,-0.222539,0.,0.,0.
local,19,0,0.200757,-0.481212000000001,-0.222539,0.,0.,0.
local,20,0,0.653457,-0.481212,-2.024939,0.,0.,0.
local,21,0,0.653457,-0.481212,-1.620139,0.,0.,0.
local,22,0,0.678157108228011,-0.330012432912046,-1.62613770126386,0.,0.,0.
local,23,0,0.678457,-0.331212,-2.024939,0.,0.,0.
local,24,0,0.203457,-0.481212,-2.024939,0.,0.,0.
local,25,0,0.178457,-0.331212,-2.0249390001006,0.,0.,0.
local,26,0,0.178756891771988,-0.330012432912046,-1.62613770126386,0.,0.,0.
local,27,0,0.203457,-0.481212,-1.620139,0.,0.,0.
local,28,0,1.04838113896103,-0.4811495,-2.53899999998877e-003,0.,0.,0.
local,29,0,1.04838113896102,-0.481149500000021,-1.81253899999996,0.,0.,0.
local,30,0,-0.191467138961028,-0.4811495,-1.81253899999992,0.,0.,0.
local,31,0,-0.191467155875584,-0.481149500000001,-2.53898497595132e-003,0.,0.,0.
! ... 4 like lines cut
csys,0
/com,*********** Nodes for the whole assembly ***********
nblock,3,,2311
(1i9,3e20.9e3)
     1754    -1.992950939E-01    -2.611495000E-01    -1.253900000E-02
     1755    -1.953811249E-01    -3.711495000E-01    -7.538992488E-03
     1756    -1.979904376E-01    -2.978161667E-01    -1.087233083E-02
     1757    -1.966857812E-01    -3.344828333E-01    -9.205661659E-03
     1758    -1.914671559E-01    -4.811495000E-01    -2.538984976E-03
     1759    -1.940764686E-01    -4.078161667E-01    -5.872323317E-03
     1760    -1.927718122E-01    -4.444828333E-01    -4.205654147E-03
     1761     1.056209094E+00    -2.611495000E-01    -1.253900000E-02
     1762     1.052295116E+00    -3.711495000E-01    -7.539000000E-03
     1763     1.054904435E+00    -2.978161667E-01    -1.087233333E-02
     1764     1.053599776E+00    -3.344828333E-01    -9.205666667E-03
     1765     1.048381139E+00    -4.811495000E-01    -2.539000000E-03
     1766     1.050990457E+00    -4.078161667E-01    -5.872333333E-03
     1767     1.049685798E+00    -4.444828333E-01    -4.205666667E-03
     1768    -2.092950939E-01    -2.611495000E-01    -1.812539000E+00
     1769    -2.003811164E-01    -3.711495000E-01    -1.812539000E+00
     1770    -2.063237681E-01    -2.978161667E-01    -1.812539000E+00
     1771    -2.033524423E-01    -3.344828333E-01    -1.812539000E+00
     1772    -1.914671390E-01    -4.811495000E-01    -1.812539000E+00
     1773    -1.974097906E-01    -4.078161667E-01    -1.812539000E+00
! ... 2082 like lines cut
/com,*********** Nodes for all Remote Points ***********
nblock,3
(1i9,3e20.9e3)
     2102     6.534570000E-01    -4.812120000E-01     1.774610000E-01
     2103     6.534570000E-01    -4.812120000E-01     1.774610000E-01
     2104     6.686970000E-01    -3.303120000E-01     1.756610000E-01
     2105     6.686970000E-01    -3.303120000E-01     1.756610000E-01
     2106     6.684570000E-01    -3.312120000E-01    -2.225390000E-01
     2107     6.684570000E-01    -3.312120000E-01    -2.225390000E-01
     2108     6.561570000E-01    -4.812120000E-01    -2.225390000E-01
     2109     6.561570000E-01    -4.812120000E-01    -2.225390000E-01
     2110     2.034570000E-01    -4.812120000E-01     1.774610000E-01
     2111     2.034570000E-01    -4.812120000E-01     1.774610000E-01
     2112     1.882170000E-01    -3.303120000E-01     1.756610000E-01
     2113     1.882170000E-01    -3.303120000E-01     1.756610000E-01
     2114     1.884570000E-01    -3.312120000E-01    -2.225390000E-01
     2115     1.884570000E-01    -3.312120000E-01    -2.225390000E-01
     2116     2.007570000E-01    -4.812120000E-01    -2.225390000E-01
     2117     2.007570000E-01    -4.812120000E-01    -2.225390000E-01
     2118     6.534570000E-01    -4.812120000E-01    -2.024939000E+00
     2119     6.534570000E-01    -4.812120000E-01    -2.024939000E+00
     2120     6.534570000E-01    -4.812120000E-01    -1.620139000E+00
     2121     6.534570000E-01    -4.812120000E-01    -1.620139000E+00
! ... 42 like lines cut
/wb,elem,start            !  set before creation of elements
/com,*********** Elements for Body 1 'Beam (Extracted Profile1)' ***********
et,1,188
keyo,1,3,2
MAT,1 $ TYPE,1 $ REAL,1 $ SECNUM,1 $ ESYS,0    ! ELEMNODES = 3
eblock,21,COMPACT,,3
(21i9)
        1        1        3      855
        2        3        4      856
        3        4        2      857
-1
secnum,1    ! reset the section ID to default
! Material Id = {4FE4FEA0-BE8A-4142-B295-AE9594BAD111}
/com,*********** Elements for Body 2 'Beam (Extracted Profile1)' ***********
et,2,188
keyo,2,3,2
MAT,2 $ TYPE,2 $ REAL,2 $ SECNUM,2 $ ESYS,0    ! ELEMNODES = 3
eblock,21,COMPACT,,3
(21i9)
        4        5        7      858
        5        7        8      859
        6        8        6      860
-1
secnum,1    ! reset the section ID to default
! Material Id = {4E87DF2F-CAE5-46D7-B173-6DC0E67D9320}
/com,*********** Elements for Body 3 'Beam (Extracted Profile1)' ***********
et,3,188
keyo,3,3,2
MAT,3 $ TYPE,3 $ REAL,3 $ SECNUM,3 $ ESYS,0    ! ELEMNODES = 3
eblock,21,COMPACT,,15
(21i9)
        7        9       11      861
        8       11       12      862
        9       12       13      863
       10       13       14      864
       11       14       15      865
       12       15       16      866
       13       16       17      867
       14       17       18      868
       15       18       19      869
       16       19       20      870
       17       20       21      871
       18       21       22      872
       19       22       23      873
       20       23       24      874
       21       24       10      875
-1
secnum,1    ! reset the section ID to default
! Material Id = {B136A065-4F1C-460E-AF0E-8FB3109DFF4C}
/com,*********** Elements for Body 4 'Beam (Extracted Profile1)' ***********
et,4,188
keyo,4,3,2
MAT,4 $ TYPE,4 $ REAL,4 $ SECNUM,4 $ ESYS,0    ! ELEMNODES = 3
eblock,21,COMPACT,,15
(21i9)
       22       25       27      876
       23       27       28      877
       24       28       29      878
       25       29       30      879
       26       30       31      880
       27       31       32      881
       28       32       33      882
       29       33       34      883
       30       34       35      884
       31       35       36      885
       32       36       37      886
       33       37       38      887
       34       38       39      888
       35       39       40      889
       36       40       26      890
-1
secnum,1    ! reset the section ID to default
! Material Id = {09CF0714-08EC-43A9-B9BC-3D4B299324F8}
/com,*********** Elements for Body 5 'Beam (Extracted Profile2)' ***********
et,5,188
keyo,5,3,2
MAT,5 $ TYPE,5 $ REAL,5 $ SECNUM,5 $ ESYS,0    ! ELEMNODES = 3
eblock,21,COMPACT,,863
(21i9)
       37       41       43      891
       38       43       44      892
       39       44       45      893
       40       45       46      894
       41       46       47      895
       42       47       48      896
       43       48       49      897
       44       49       50      898
       45       50       42      899
       46       51       53      900
       47       53       54      901
       48       54       55      902
       49       55       52      903
       50       56       57      904
       51       57       58      905
       52       58       59      906
       53       59       60      907
       54       60       61      908
       55       61       62      909
       56       62       63      910
! ... 844 like lines cut
secnum,1    ! reset the section ID to default
! Material Id = {90EE5C9F-E96B-4DBD-A60C-BD9C20EBC4E3}
/com,*********** Elements for Body 6 'Beam (Extracted Profile2)' ***********
et,6,188
keyo,6,3,2
MAT,6 $ TYPE,6 $ REAL,6 $ SECNUM,6 $ ESYS,0    ! ELEMNODES = 3
eblock,21,COMPACT,,6
(21i9)
      900     1754     1756     1782
      901     1756     1757     1783
      902     1757     1755     1784
      903     1755     1759     1785
      904     1759     1760     1786
      905     1760     1758     1787
-1
secnum,1    ! reset the section ID to default
! Material Id = {55F30971-33F8-4747-B733-3819FB0397E3}
/com,*********** Elements for Body 7 'Beam (Extracted Profile2)' ***********
et,7,188
keyo,7,3,2
MAT,7 $ TYPE,7 $ REAL,7 $ SECNUM,7 $ ESYS,0    ! ELEMNODES = 3
eblock,21,COMPACT,,6
(21i9)
      906     1761     1763     1788
      907     1763     1764     1789
      908     1764     1762     1790
      909     1762     1766     1791
      910     1766     1767     1792
      911     1767     1765     1793
-1
secnum,1    ! reset the section ID to default
! Material Id = {87FFE4D8-FD32-46A7-854D-CBE78788EA94}
/com,*********** Elements for Body 8 'Beam (Extracted Profile2)' ***********
et,8,188
keyo,8,3,2
MAT,8 $ TYPE,8 $ REAL,8 $ SECNUM,8 $ ESYS,0    ! ELEMNODES = 3
eblock,21,COMPACT,,6
(21i9)
      912     1768     1770     1794
      913     1770     1771     1795
      914     1771     1769     1796
      915     1769     1773     1797
      916     1773     1774     1798
      917     1774     1772     1799
-1
secnum,1    ! reset the section ID to default
! Material Id = {6FA684E1-EE0F-422D-A4EE-2A58BEF72C7E}
/com,*********** Elements for Body 9 'Beam (Extracted Profile2)' ***********
et,9,188
keyo,9,3,2
MAT,9 $ TYPE,9 $ REAL,9 $ SECNUM,9 $ ESYS,0    ! ELEMNODES = 3
eblock,21,COMPACT,,6
(21i9)
      918     1775     1777     1800
      919     1777     1778     1801
      920     1778     1776     1802
      921     1776     1780     1803
      922     1780     1781     1804
      923     1781     1779     1805
-1
secnum,1    ! reset the section ID to default
! Material Id = {69C34010-5C58-4063-B90A-E0A45FBF7DA2}
/com,*********** Elements for Body 10 'Beam (Extracted Profile1)' ***********
et,10,188
keyo,10,3,2
MAT,10 $ TYPE,10 $ REAL,10 $ SECNUM,10 $ ESYS,0    ! ELEMNODES = 3
eblock,21,COMPACT,,18
(21i9)
      924     1806     1808     1882
      925     1808     1809     1883
      926     1809     1810     1884
      927     1810     1811     1885
      928     1811     1812     1886
      929     1812     1813     1887
      930     1813     1814     1888
      931     1814     1815     1889
      932     1815     1807     1890
      933     1806     1817     1891
      934     1817     1818     1892
      935     1818     1819     1893
      936     1819     1820     1894
      937     1820     1821     1895
      938     1821     1822     1896
      939     1822     1823     1897
      940     1823     1824     1898
      941     1824     1816     1899
-1
secnum,1    ! reset the section ID to default
! Material Id = {6C55E5B6-B06E-4703-9E52-2550C50B2767}
/com,*********** Elements for Body 11 'Beam (Extracted Profile1)' ***********
et,11,188
keyo,11,3,2
MAT,11 $ TYPE,11 $ REAL,11 $ SECNUM,11 $ ESYS,0    ! ELEMNODES = 3
eblock,21,COMPACT,,18
(21i9)
      942     1825     1827     1900
      943     1827     1828     1901
      944     1828     1829     1902
      945     1829     1830     1903
      946     1830     1831     1904
      947     1831     1832     1905
      948     1832     1833     1906
      949     1833     1834     1907
      950     1834     1826     1908
      951     1825     1836     1909
      952     1836     1837     1910
      953     1837     1838     1911
      954     1838     1839     1912
      955     1839     1840     1913
      956     1840     1841     1914
      957     1841     1842     1915
      958     1842     1843     1916
      959     1843     1835     1917
-1
secnum,1    ! reset the section ID to default
! Material Id = {2EE1CC87-1A14-490A-8E11-73005838B0D6}
/com,*********** Elements for Body 12 'Beam (Extracted Profile1)' ***********
et,12,188
keyo,12,3,2
MAT,12 $ TYPE,12 $ REAL,12 $ SECNUM,12 $ ESYS,0    ! ELEMNODES = 3
eblock,21,COMPACT,,18
(21i9)
      960     1844     1846     1918
      961     1846     1847     1919
      962     1847     1848     1920
      963     1848     1849     1921
      964     1849     1850     1922
      965     1850     1851     1923
      966     1851     1852     1924
      967     1852     1853     1925
      968     1853     1845     1926
      969     1844     1855     1927
      970     1855     1856     1928
      971     1856     1857     1929
      972     1857     1858     1930
      973     1858     1859     1931
      974     1859     1860     1932
      975     1860     1861     1933
      976     1861     1862     1934
      977     1862     1854     1935
-1
secnum,1    ! reset the section ID to default
! Material Id = {C02B29EF-7E20-4CEB-830D-DFDA83C98832}
/com,*********** Elements for Body 13 'Beam (Extracted Profile1)' ***********
et,13,188
keyo,13,3,2
MAT,13 $ TYPE,13 $ REAL,13 $ SECNUM,13 $ ESYS,0    ! ELEMNODES = 3
eblock,21,COMPACT,,18
(21i9)
      978     1863     1865     1936
      979     1865     1866     1937
      980     1866     1867     1938
      981     1867     1868     1939
      982     1868     1869     1940
      983     1869     1870     1941
      984     1870     1871     1942
      985     1871     1872     1943
      986     1872     1864     1944
      987     1863     1874     1945
      988     1874     1875     1946
      989     1875     1876     1947
      990     1876     1877     1948
      991     1877     1878     1949
      992     1878     1879     1950
      993     1879     1880     1951
      994     1880     1881     1952
      995     1881     1873     1953
-1
secnum,1    ! reset the section ID to default
! Material Id = {551B6348-93FA-4B76-9D3D-59F80F7D0E0D}
/com,*********** Elements for Body 14 'Beam (Extracted Profile1)' ***********
et,14,188
keyo,14,3,2
MAT,14 $ TYPE,14 $ REAL,14 $ SECNUM,14 $ ESYS,0    ! ELEMNODES = 3
eblock,21,COMPACT,,18
(21i9)
      996     1954     1956     2030
      997     1956     1957     2031
      998     1957     1958     2032
      999     1958     1959     2033
     1000     1959     1960     2034
     1001     1960     1961     2035
     1002     1961     1962     2036
     1003     1962     1963     2037
     1004     1963     1955     2038
     1005     1954     1965     2039
     1006     1965     1966     2040
     1007     1966     1967     2041
     1008     1967     1968     2042
     1009     1968     1969     2043
     1010     1969     1970     2044
     1011     1970     1971     2045
     1012     1971     1972     2046
     1013     1972     1964     2047
-1
secnum,1    ! reset the section ID to default
! Material Id = {1709D63B-721C-45DE-BB24-9D0A980F102A}
/com,*********** Elements for Body 15 'Beam (Extracted Profile1)' ***********
et,15,188
keyo,15,3,2
MAT,15 $ TYPE,15 $ REAL,15 $ SECNUM,15 $ ESYS,0    ! ELEMNODES = 3
eblock,21,COMPACT,,18
(21i9)
     1014     1973     1975     2048
     1015     1975     1976     2049
     1016     1976     1977     2050
     1017     1977     1978     2051
     1018     1978     1979     2052
     1019     1979     1980     2053
     1020     1980     1981     2054
     1021     1981     1982     2055
     1022     1982     1974     2056
     1023     1973     1984     2057
     1024     1984     1985     2058
     1025     1985     1986     2059
     1026     1986     1987     2060
     1027     1987     1988     2061
     1028     1988     1989     2062
     1029     1989     1990     2063
     1030     1990     1991     2064
     1031     1991     1983     2065
-1
secnum,1    ! reset the section ID to default
! Material Id = {3F311F18-C63E-466D-863C-0FCA1E6D6EB3}
/com,*********** Elements for Body 16 'Beam (Extracted Profile1)' ***********
et,16,188
keyo,16,3,2
MAT,16 $ TYPE,16 $ REAL,16 $ SECNUM,16 $ ESYS,0    ! ELEMNODES = 3
eblock,21,COMPACT,,18
(21i9)
     1032     1992     1994     2066
     1033     1994     1995     2067
     1034     1995     1996     2068
     1035     1996     1997     2069
     1036     1997     1998     2070
     1037     1998     1999     2071
     1038     1999     2000     2072
     1039     2000     2001     2073
     1040     2001     1993     2074
     1041     1992     2003     2075
     1042     2003     2004     2076
     1043     2004     2005     2077
     1044     2005     2006     2078
     1045     2006     2007     2079
     1046     2007     2008     2080
     1047     2008     2009     2081
     1048     2009     2010     2082
     1049     2010     2002     2083
-1
secnum,1    ! reset the section ID to default
! Material Id = {B02F2ED3-58E9-4C19-AA39-ECDD8DD60C48}
/com,*********** Elements for Body 17 'Beam (Extracted Profile1)' ***********
et,17,188
keyo,17,3,2
MAT,17 $ TYPE,17 $ REAL,17 $ SECNUM,17 $ ESYS,0    ! ELEMNODES = 3
eblock,21,COMPACT,,18
(21i9)
     1050     2011     2013     2084
     1051     2013     2014     2085
     1052     2014     2015     2086
     1053     2015     2016     2087
     1054     2016     2017     2088
     1055     2017     2018     2089
     1056     2018     2019     2090
     1057     2019     2020     2091
     1058     2020     2012     2092
     1059     2011     2022     2093
     1060     2022     2023     2094
     1061     2023     2024     2095
     1062     2024     2025     2096
     1063     2025     2026     2097
     1064     2026     2027     2098
     1065     2027     2028     2099
     1066     2028     2029     2100
     1067     2029     2021     2101
-1
secnum,1    ! reset the section ID to default
! Material Id = {3684AA2E-24F1-431C-8D7D-1F2A0F1E4C01}
/wb,elem,end               !  done creating elements
toffst,273.15,      ! Temperature offset from absolute zero
/com,*********** Set Reference Temperature ***********
tref,22.
/wb,mat,start              !  starting to send materials
/com,*********** Send Materials ***********
Temperature = 'TEMP' ! Temperature
MP,DENS,1,7850,	! kg m^-3
MP,ALPX,1,1.2e-05,	! C^-1
MP,C,1,434,	! J kg^-1 C^-1
MP,KXX,1,60.5,	! W m^-1 C^-1
MP,RSVX,1,1.7e-07,	! kg m^3 A^-2 s^-3
MP,EX,1,200000000000,	! Pa
MP,NUXY,1,0.3,
MP,MURX,1,10000,
MP,UVID,1,67ee1146-eeaa-4830-9359-1f5bbe3c9b98
MP,UMID,1,59002a79-71c2-428e-906b-55d7dbee100e

Temperature = 'TEMP' ! Temperature
MP,DENS,2,7850,	! kg m^-3
MP,ALPX,2,1.2e-05,	! C^-1
MP,C,2,434,	! J kg^-1 C^-1
MP,KXX,2,60.5,	! W m^-1 C^-1
MP,RSVX,2,1.7e-07,	! kg m^3 A^-2 s^-3
MP,EX,2,200000000000,	! Pa
MP,NUXY,2,0.3,
MP,MURX,2,10000,
MP,UVID,2,67ee1146-eeaa-4830-9359-1f5bbe3c9b98
MP,UMID,2,59002a79-71c2-428e-906b-55d7dbee100e

Temperature = 'TEMP' ! Temperature
MP,DENS,3,7850,	! kg m^-3
MP,ALPX,3,1.2e-05,	! C^-1
MP,C,3,434,	! J kg^-1 C^-1
MP,KXX,3,60.5,	! W m^-1 C^-1
MP,RSVX,3,1.7e-07,	! kg m^3 A^-2 s^-3
MP,EX,3,200000000000,	! Pa
MP,NUXY,3,0.3,
MP,MURX,3,10000,
MP,UVID,3,67ee1146-eeaa-4830-9359-1f5bbe3c9b98
MP,UMID,3,59002a79-71c2-428e-906b-55d7dbee100e

Temperature = 'TEMP' ! Temperature
MP,DENS,4,7850,	! kg m^-3
MP,ALPX,4,1.2e-05,	! C^-1
MP,C,4,434,	! J kg^-1 C^-1
MP,KXX,4,60.5,	! W m^-1 C^-1
MP,RSVX,4,1.7e-07,	! kg m^3 A^-2 s^-3
MP,EX,4,200000000000,	! Pa
MP,NUXY,4,0.3,
MP,MURX,4,10000,
MP,UVID,4,67ee1146-eeaa-4830-9359-1f5bbe3c9b98
MP,UMID,4,59002a79-71c2-428e-906b-55d7dbee100e

Temperature = 'TEMP' ! Temperature
MP,DENS,5,7850,	! kg m^-3
MP,ALPX,5,1.2e-05,	! C^-1
MP,C,5,434,	! J kg^-1 C^-1
MP,KXX,5,60.5,	! W m^-1 C^-1
MP,RSVX,5,1.7e-07,	! kg m^3 A^-2 s^-3
MP,EX,5,200000000000,	! Pa
MP,NUXY,5,0.3,
MP,MURX,5,10000,
MP,UVID,5,67ee1146-eeaa-4830-9359-1f5bbe3c9b98
MP,UMID,5,59002a79-71c2-428e-906b-55d7dbee100e

Temperature = 'TEMP' ! Temperature
MP,DENS,6,7850,	! kg m^-3
MP,ALPX,6,1.2e-05,	! C^-1
MP,C,6,434,	! J kg^-1 C^-1
MP,KXX,6,60.5,	! W m^-1 C^-1
MP,RSVX,6,1.7e-07,	! kg m^3 A^-2 s^-3
MP,EX,6,200000000000,	! Pa
MP,NUXY,6,0.3,
MP,MURX,6,10000,
MP,UVID,6,67ee1146-eeaa-4830-9359-1f5bbe3c9b98
MP,UMID,6,59002a79-71c2-428e-906b-55d7dbee100e

Temperature = 'TEMP' ! Temperature
MP,DENS,7,7850,	! kg m^-3
MP,ALPX,7,1.2e-05,	! C^-1
MP,C,7,434,	! J kg^-1 C^-1
MP,KXX,7,60.5,	! W m^-1 C^-1
MP,RSVX,7,1.7e-07,	! kg m^3 A^-2 s^-3
MP,EX,7,200000000000,	! Pa
MP,NUXY,7,0.3,
MP,MURX,7,10000,
MP,UVID,7,67ee1146-eeaa-4830-9359-1f5bbe3c9b98
MP,UMID,7,59002a79-71c2-428e-906b-55d7dbee100e

Temperature = 'TEMP' ! Temperature
MP,DENS,8,7850,	! kg m^-3
MP,ALPX,8,1.2e-05,	! C^-1
MP,C,8,434,	! J kg^-1 C^-1
MP,KXX,8,60.5,	! W m^-1 C^-1
MP,RSVX,8,1.7e-07,	! kg m^3 A^-2 s^-3
MP,EX,8,200000000000,	! Pa
MP,NUXY,8,0.3,
MP,MURX,8,10000,
MP,UVID,8,67ee1146-eeaa-4830-9359-1f5bbe3c9b98
MP,UMID,8,59002a79-71c2-428e-906b-55d7dbee100e

Temperature = 'TEMP' ! Temperature
MP,DENS,9,7850,	! kg m^-3
MP,ALPX,9,1.2e-05,	! C^-1
MP,C,9,434,	! J kg^-1 C^-1
MP,KXX,9,60.5,	! W m^-1 C^-1
MP,RSVX,9,1.7e-07,	! kg m^3 A^-2 s^-3
MP,EX,9,200000000000,	! Pa
MP,NUXY,9,0.3,
MP,MURX,9,10000,
MP,UVID,9,67ee1146-eeaa-4830-9359-1f5bbe3c9b98
MP,UMID,9,59002a79-71c2-428e-906b-55d7dbee100e

Temperature = 'TEMP' ! Temperature
MP,DENS,10,7850,	! kg m^-3
MP,ALPX,10,1.2e-05,	! C^-1
MP,C,10,434,	! J kg^-1 C^-1
MP,KXX,10,60.5,	! W m^-1 C^-1
MP,RSVX,10,1.7e-07,	! kg m^3 A^-2 s^-3
MP,EX,10,200000000000,	! Pa
MP,NUXY,10,0.3,
MP,MURX,10,10000,
MP,UVID,10,67ee1146-eeaa-4830-9359-1f5bbe3c9b98
MP,UMID,10,59002a79-71c2-428e-906b-55d7dbee100e

Temperature = 'TEMP' ! Temperature
MP,DENS,11,7850,	! kg m^-3
MP,ALPX,11,1.2e-05,	! C^-1
MP,C,11,434,	! J kg^-1 C^-1
MP,KXX,11,60.5,	! W m^-1 C^-1
MP,RSVX,11,1.7e-07,	! kg m^3 A^-2 s^-3
MP,EX,11,200000000000,	! Pa
MP,NUXY,11,0.3,
MP,MURX,11,10000,
MP,UVID,11,67ee1146-eeaa-4830-9359-1f5bbe3c9b98
MP,UMID,11,59002a79-71c2-428e-906b-55d7dbee100e

Temperature = 'TEMP' ! Temperature
MP,DENS,12,7850,	! kg m^-3
MP,ALPX,12,1.2e-05,	! C^-1
MP,C,12,434,	! J kg^-1 C^-1
MP,KXX,12,60.5,	! W m^-1 C^-1
MP,RSVX,12,1.7e-07,	! kg m^3 A^-2 s^-3
MP,EX,12,200000000000,	! Pa
MP,NUXY,12,0.3,
MP,MURX,12,10000,
MP,UVID,12,67ee1146-eeaa-4830-9359-1f5bbe3c9b98
MP,UMID,12,59002a79-71c2-428e-906b-55d7dbee100e

Temperature = 'TEMP' ! Temperature
MP,DENS,13,7850,	! kg m^-3
MP,ALPX,13,1.2e-05,	! C^-1
MP,C,13,434,	! J kg^-1 C^-1
MP,KXX,13,60.5,	! W m^-1 C^-1
MP,RSVX,13,1.7e-07,	! kg m^3 A^-2 s^-3
MP,EX,13,200000000000,	! Pa
MP,NUXY,13,0.3,
MP,MURX,13,10000,
MP,UVID,13,67ee1146-eeaa-4830-9359-1f5bbe3c9b98
MP,UMID,13,59002a79-71c2-428e-906b-55d7dbee100e

Temperature = 'TEMP' ! Temperature
MP,DENS,14,7850,	! kg m^-3
MP,ALPX,14,1.2e-05,	! C^-1
MP,C,14,434,	! J kg^-1 C^-1
MP,KXX,14,60.5,	! W m^-1 C^-1
MP,RSVX,14,1.7e-07,	! kg m^3 A^-2 s^-3
MP,EX,14,200000000000,	! Pa
MP,NUXY,14,0.3,
MP,MURX,14,10000,
MP,UVID,14,67ee1146-eeaa-4830-9359-1f5bbe3c9b98
MP,UMID,14,59002a79-71c2-428e-906b-55d7dbee100e

Temperature = 'TEMP' ! Temperature
MP,DENS,15,7850,	! kg m^-3
MP,ALPX,15,1.2e-05,	! C^-1
MP,C,15,434,	! J kg^-1 C^-1
MP,KXX,15,60.5,	! W m^-1 C^-1
MP,RSVX,15,1.7e-07,	! kg m^3 A^-2 s^-3
MP,EX,15,200000000000,	! Pa
MP,NUXY,15,0.3,
MP,MURX,15,10000,
MP,UVID,15,67ee1146-eeaa-4830-9359-1f5bbe3c9b98
MP,UMID,15,59002a79-71c2-428e-906b-55d7dbee100e

Temperature = 'TEMP' ! Temperature
MP,DENS,16,7850,	! kg m^-3
MP,ALPX,16,1.2e-05,	! C^-1
MP,C,16,434,	! J kg^-1 C^-1
MP,KXX,16,60.5,	! W m^-1 C^-1
MP,RSVX,16,1.7e-07,	! kg m^3 A^-2 s^-3
MP,EX,16,200000000000,	! Pa
MP,NUXY,16,0.3,
MP,MURX,16,10000,
MP,UVID,16,67ee1146-eeaa-4830-9359-1f5bbe3c9b98
MP,UMID,16,59002a79-71c2-428e-906b-55d7dbee100e

Temperature = 'TEMP' ! Temperature
MP,DENS,17,7850,	! kg m^-3
MP,ALPX,17,1.2e-05,	! C^-1
MP,C,17,434,	! J kg^-1 C^-1
MP,KXX,17,60.5,	! W m^-1 C^-1
MP,RSVX,17,1.7e-07,	! kg m^3 A^-2 s^-3
MP,EX,17,200000000000,	! Pa
MP,NUXY,17,0.3,
MP,MURX,17,10000,
MP,UVID,17,67ee1146-eeaa-4830-9359-1f5bbe3c9b98
MP,UMID,17,59002a79-71c2-428e-906b-55d7dbee100e

/wb,mat,end                !  done sending materials
/com,*********** Send Beam Properties ***********
SECTYPE,1,BEAM,CTUB
SECDATA,7.8994e-003,1.0668e-002
secoffset,cent

SECTYPE,2,BEAM,CTUB
SECDATA,7.8994e-003,1.0668e-002
secoffset,cent

SECTYPE,3,BEAM,CTUB
SECDATA,7.8994e-003,1.0668e-002
secoffset,cent

SECTYPE,4,BEAM,CTUB
SECDATA,7.8994e-003,1.0668e-002
secoffset,cent

SECTYPE,5,BEAM,CTUB
SECDATA,1.22174e-002,1.6764e-002
secoffset,cent

SECTYPE,6,BEAM,CTUB
SECDATA,1.22174e-002,1.6764e-002
secoffset,cent

SECTYPE,7,BEAM,CTUB
SECDATA,1.22174e-002,1.6764e-002
secoffset,cent

SECTYPE,8,BEAM,CTUB
SECDATA,1.22174e-002,1.6764e-002
secoffset,cent

SECTYPE,9,BEAM,CTUB
SECDATA,1.22174e-002,1.6764e-002
secoffset,cent

SECTYPE,10,BEAM,CTUB
SECDATA,7.8994e-003,1.0668e-002
secoffset,cent

SECTYPE,11,BEAM,CTUB
SECDATA,7.8994e-003,1.0668e-002
secoffset,cent

SECTYPE,12,BEAM,CTUB
SECDATA,7.8994e-003,1.0668e-002
secoffset,cent

SECTYPE,13,BEAM,CTUB
SECDATA,7.8994e-003,1.0668e-002
secoffset,cent

SECTYPE,14,BEAM,CTUB
SECDATA,7.8994e-003,1.0668e-002
secoffset,cent

SECTYPE,15,BEAM,CTUB
SECDATA,7.8994e-003,1.0668e-002
secoffset,cent

SECTYPE,16,BEAM,CTUB
SECDATA,7.8994e-003,1.0668e-002
secoffset,cent

SECTYPE,17,BEAM,CTUB
SECDATA,7.8994e-003,1.0668e-002
secoffset,cent

!************************* Model Summary ********************
! Beam (Extracted Profile1),	Structural Steel,	matid,	1
! Beam (Extracted Profile1),	Structural Steel,	matid,	2
! Beam (Extracted Profile1),	Structural Steel,	matid,	3
! Beam (Extracted Profile1),	Structural Steel,	matid,	4
! Beam (Extracted Profile2),	Structural Steel,	matid,	5
! Beam (Extracted Profile2),	Structural Steel,	matid,	6
! Beam (Extracted Profile2),	Structural Steel,	matid,	7
! Beam (Extracted Profile2),	Structural Steel,	matid,	8
! Beam (Extracted Profile2),	Structural Steel,	matid,	9
! Beam (Extracted Profile1),	Structural Steel,	matid,	10
! Beam (Extracted Profile1),	Structural Steel,	matid,	11
! Beam (Extracted Profile1),	Structural Steel,	matid,	12
! Beam (Extracted Profile1),	Structural Steel,	matid,	13
! Beam (Extracted Profile1),	Structural Steel,	matid,	14
! Beam (Extracted Profile1),	Structural Steel,	matid,	15
! Beam (Extracted Profile1),	Structural Steel,	matid,	16
! Beam (Extracted Profile1),	Structural Steel,	matid,	17
!************************* End Model Summary ********************
! get the diagonal of the bounding box. Needed later for other things
*get,_xmin,node,,mnloc,x
*get,_ymin,node,,mnloc,y
*get,_zmin,node,,mnloc,z
*get,_xmax,node,,mxloc,x
*get,_ymax,node,,mxloc,y
*get,_zmax,node,,mxloc,z
_ASMDIAG=(_xmax-_xmin)*(_xmax-_xmin)+(_ymax-_ymin)*(_ymax-_ymin)+(_zmax-_zmin)*(_zmax-_zmin)
_ASMDIAG=SQRT(_ASMDIAG)
/wb,contact,start          !  starting to send contact
/wb,contact,end            !  done creating contacts
/com,*********** Send Named Selection as Node Component ***********
CMBLOCK,CHASSIS_A_ARMS,NODE,       16
(8i10)
        41        42        78       105       118       127       157       171
       374       388       400       409       511       546       730       738
/com,*********** Send Named Selection as Node Component ***********
CMBLOCK,A_ARMS_CHASSIS,NODE,       16
(8i10)
      1807      1816      1826      1835      1845      1854      1864      1873
      1955      1964      1974      1983      1993      2002      2012      2021
/com,*********** Send Named Selection as Node Component ***********
CMBLOCK,UPRIGHT_LOWER,NODE,        4
(8i10)
      1758      1765      1772      1779
/com,*********** Send Named Selection as Node Component ***********
CMBLOCK,LOWER_UPRIGHT,NODE,        4
(8i10)
      1806      1825      1844      1863
/com,*********** Send Named Selection as Node Component ***********
CMBLOCK,UPRIGHT_UPPER,NODE,        4
(8i10)
      1754      1761      1768      1775
/com,*********** Send Named Selection as Node Component ***********
CMBLOCK,UPPER_UPRIGHT,NODE,        4
(8i10)
      1954      1973      1992      2011
/golist
/wb,load,start             !  starting to send loads
/com,*********** Create Remote Point "Internal Remote Point" ***********
! -------- Remote Point Used by "Spherical - Beam (Extracted Profile2) To Beam (Extracted Profile1)" --------
*set,_npilot,2102
_npilot107=_npilot
et,18,170
type,18
real,18
mat,18
keyo,18,2,1         ! don't fix pilot node
keyo,18,4,111111
tshape,pilo
en,1157,2102        ! create pilot node for rigid link
tshape
en,1158,2102,171
/com,*********** Create Remote Point "Internal Remote Point 2" ***********
! -------- Remote Point Used by "Spherical - Beam (Extracted Profile2) To Beam (Extracted Profile1)" --------
*set,_npilot,2103
_npilot108=_npilot
et,19,170
type,19
real,19
mat,19
keyo,19,2,1         ! don't fix pilot node
keyo,19,4,111111
tshape,pilo
en,1159,2103        ! create pilot node for rigid link
tshape
en,1160,2103,1835
/com,*********** Create Remote Point "Internal Remote Point" ***********
! -------- Remote Point Used by "Chassis A Arms Spherical - Beam (Extracted Profile2) To Beam (Extracted Profile1)" --------
*set,_npilot,2104
_npilot2147=_npilot
et,20,170
type,20
real,20
mat,20
keyo,20,2,1         ! don't fix pilot node
keyo,20,4,111111
tshape,pilo
en,1161,2104        ! create pilot node for rigid link
tshape
en,1162,2104,157
/com,*********** Create Remote Point "Internal Remote Point 2" ***********
! -------- Remote Point Used by "Chassis A Arms Spherical - Beam (Extracted Profile2) To Beam (Extracted Profile1)" --------
*set,_npilot,2105
_npilot2148=_npilot
et,21,170
type,21
real,21
mat,21
keyo,21,2,1         ! don't fix pilot node
keyo,21,4,111111
tshape,pilo
en,1163,2105        ! create pilot node for rigid link
tshape
en,1164,2105,1974
/com,*********** Create Remote Point "Internal Remote Point" ***********
! -------- Remote Point Used by "Chassis A Arms Spherical - Beam (Extracted Profile2) To Beam (Extracted Profile1) 2" --------
*set,_npilot,2106
_npilot2155=_npilot
et,22,170
type,22
real,22
mat,22
keyo,22,2,1         ! don't fix pilot node
keyo,22,4,111111
tshape,pilo
en,1165,2106        ! create pilot node for rigid link
tshape
en,1166,2106,105
/com,*********** Create Remote Point "Internal Remote Point 2" ***********
! -------- Remote Point Used by "Chassis A Arms Spherical - Beam (Extracted Profile2) To Beam (Extracted Profile1) 2" --------
*set,_npilot,2107
_npilot2156=_npilot
et,23,170
type,23
real,23
mat,23
keyo,23,2,1         ! don't fix pilot node
keyo,23,4,111111
tshape,pilo
en,1167,2107        ! create pilot node for rigid link
tshape
en,1168,2107,1983
/com,*********** Create Remote Point "Internal Remote Point" ***********
! -------- Remote Point Used by "Chassis A Arms Spherical - Beam (Extracted Profile2) To Beam (Extracted Profile1) 3" --------
*set,_npilot,2108
_npilot2163=_npilot
et,24,170
type,24
real,24
mat,24
keyo,24,2,1         ! don't fix pilot node
keyo,24,4,111111
tshape,pilo
en,1169,2108        ! create pilot node for rigid link
tshape
en,1170,2108,78
/com,*********** Create Remote Point "Internal Remote Point 2" ***********
! -------- Remote Point Used by "Chassis A Arms Spherical - Beam (Extracted Profile2) To Beam (Extracted Profile1) 3" --------
*set,_npilot,2109
_npilot2164=_npilot
et,25,170
type,25
real,25
mat,25
keyo,25,2,1         ! don't fix pilot node
keyo,25,4,111111
tshape,pilo
en,1171,2109        ! create pilot node for rigid link
tshape
en,1172,2109,1826
/com,*********** Create Remote Point "Internal Remote Point" ***********
! -------- Remote Point Used by "Chassis A Arms Spherical - Beam (Extracted Profile2) To Beam (Extracted Profile1) 4" --------
*set,_npilot,2110
_npilot2171=_npilot
et,26,170
type,26
real,26
mat,26
keyo,26,2,1         ! don't fix pilot node
keyo,26,4,111111
tshape,pilo
en,1173,2110        ! create pilot node for rigid link
tshape
en,1174,2110,42
/com,*********** Create Remote Point "Internal Remote Point 2" ***********
! -------- Remote Point Used by "Chassis A Arms Spherical - Beam (Extracted Profile2) To Beam (Extracted Profile1) 4" --------
*set,_npilot,2111
_npilot2172=_npilot
et,27,170
type,27
real,27
mat,27
keyo,27,2,1         ! don't fix pilot node
keyo,27,4,111111
tshape,pilo
en,1175,2111        ! create pilot node for rigid link
tshape
en,1176,2111,1845
/com,*********** Create Remote Point "Internal Remote Point" ***********
! -------- Remote Point Used by "Chassis A Arms Spherical - Beam (Extracted Profile2) To Beam (Extracted Profile1) 5" --------
*set,_npilot,2112
_npilot2179=_npilot
et,28,170
type,28
real,28
mat,28
keyo,28,2,1         ! don't fix pilot node
keyo,28,4,111111
tshape,pilo
en,1177,2112        ! create pilot node for rigid link
tshape
en,1178,2112,546
/com,*********** Create Remote Point "Internal Remote Point 2" ***********
! -------- Remote Point Used by "Chassis A Arms Spherical - Beam (Extracted Profile2) To Beam (Extracted Profile1) 5" --------
*set,_npilot,2113
_npilot2180=_npilot
et,29,170
type,29
real,29
mat,29
keyo,29,2,1         ! don't fix pilot node
keyo,29,4,111111
tshape,pilo
en,1179,2113        ! create pilot node for rigid link
tshape
en,1180,2113,1964
/com,*********** Create Remote Point "Internal Remote Point" ***********
! -------- Remote Point Used by "Chassis A Arms Spherical - Beam (Extracted Profile2) To Beam (Extracted Profile1) 6" --------
*set,_npilot,2114
_npilot2187=_npilot
et,30,170
type,30
real,30
mat,30
keyo,30,2,1         ! don't fix pilot node
keyo,30,4,111111
tshape,pilo
en,1181,2114        ! create pilot node for rigid link
tshape
en,1182,2114,511
/com,*********** Create Remote Point "Internal Remote Point 2" ***********
! -------- Remote Point Used by "Chassis A Arms Spherical - Beam (Extracted Profile2) To Beam (Extracted Profile1) 6" --------
*set,_npilot,2115
_npilot2188=_npilot
et,31,170
type,31
real,31
mat,31
keyo,31,2,1         ! don't fix pilot node
keyo,31,4,111111
tshape,pilo
en,1183,2115        ! create pilot node for rigid link
tshape
en,1184,2115,1955
/com,*********** Create Remote Point "Internal Remote Point" ***********
! -------- Remote Point Used by "Chassis A Arms Spherical - Beam (Extracted Profile2) To Beam (Extracted Profile1) 7" --------
*set,_npilot,2116
_npilot2195=_npilot
et,32,170
type,32
real,32
mat,32
keyo,32,2,1         ! don't fix pilot node
keyo,32,4,111111
tshape,pilo
en,1185,2116        ! create pilot node for rigid link
tshape
en,1186,2116,41
/com,*********** Create Remote Point "Internal Remote Point 2" ***********
! -------- Remote Point Used by "Chassis A Arms Spherical - Beam (Extracted Profile2) To Beam (Extracted Profile1) 7" --------
*set,_npilot,2117
_npilot2196=_npilot
et,33,170
type,33
real,33
mat,33
keyo,33,2,1         ! don't fix pilot node
keyo,33,4,111111
tshape,pilo
en,1187,2117        ! create pilot node for rigid link
tshape
en,1188,2117,1854
/com,*********** Create Remote Point "Internal Remote Point" ***********
! -------- Remote Point Used by "Chassis A Arms Spherical - Beam (Extracted Profile2) To Beam (Extracted Profile1) 8" --------
*set,_npilot,2118
_npilot2203=_npilot
et,34,170
type,34
real,34
mat,34
keyo,34,2,1         ! don't fix pilot node
keyo,34,4,111111
tshape,pilo
en,1189,2118        ! create pilot node for rigid link
tshape
en,1190,2118,388
/com,*********** Create Remote Point "Internal Remote Point 2" ***********
! -------- Remote Point Used by "Chassis A Arms Spherical - Beam (Extracted Profile2) To Beam (Extracted Profile1) 8" --------
*set,_npilot,2119
_npilot2204=_npilot
et,35,170
type,35
real,35
mat,35
keyo,35,2,1         ! don't fix pilot node
keyo,35,4,111111
tshape,pilo
en,1191,2119        ! create pilot node for rigid link
tshape
en,1192,2119,1816
/com,*********** Create Remote Point "Internal Remote Point" ***********
! -------- Remote Point Used by "Chassis A Arms Spherical - Beam (Extracted Profile2) To Beam (Extracted Profile1) 9" --------
*set,_npilot,2120
_npilot2211=_npilot
et,36,170
type,36
real,36
mat,36
keyo,36,2,1         ! don't fix pilot node
keyo,36,4,111111
tshape,pilo
en,1193,2120        ! create pilot node for rigid link
tshape
en,1194,2120,118
/com,*********** Create Remote Point "Internal Remote Point 2" ***********
! -------- Remote Point Used by "Chassis A Arms Spherical - Beam (Extracted Profile2) To Beam (Extracted Profile1) 9" --------
*set,_npilot,2121
_npilot2212=_npilot
et,37,170
type,37
real,37
mat,37
keyo,37,2,1         ! don't fix pilot node
keyo,37,4,111111
tshape,pilo
en,1195,2121        ! create pilot node for rigid link
tshape
en,1196,2121,1807
/com,*********** Create Remote Point "Internal Remote Point" ***********
! -------- Remote Point Used by "Chassis A Arms Spherical - Beam (Extracted Profile2) To Beam (Extracted Profile1) 10" --------
*set,_npilot,2122
_npilot2219=_npilot
et,38,170
type,38
real,38
mat,38
keyo,38,2,1         ! don't fix pilot node
keyo,38,4,111111
tshape,pilo
en,1197,2122        ! create pilot node for rigid link
tshape
en,1198,2122,127
/com,*********** Create Remote Point "Internal Remote Point 2" ***********
! -------- Remote Point Used by "Chassis A Arms Spherical - Beam (Extracted Profile2) To Beam (Extracted Profile1) 10" --------
*set,_npilot,2123
_npilot2220=_npilot
et,39,170
type,39
real,39
mat,39
keyo,39,2,1         ! don't fix pilot node
keyo,39,4,111111
tshape,pilo
en,1199,2123        ! create pilot node for rigid link
tshape
en,1200,2123,2012
/com,*********** Create Remote Point "Internal Remote Point" ***********
! -------- Remote Point Used by "Chassis A Arms Spherical - Beam (Extracted Profile2) To Beam (Extracted Profile1) 11" --------
*set,_npilot,2124
_npilot2227=_npilot
et,40,170
type,40
real,40
mat,40
keyo,40,2,1         ! don't fix pilot node
keyo,40,4,111111
tshape,pilo
en,1201,2124        ! create pilot node for rigid link
tshape
en,1202,2124,374
/com,*********** Create Remote Point "Internal Remote Point 2" ***********
! -------- Remote Point Used by "Chassis A Arms Spherical - Beam (Extracted Profile2) To Beam (Extracted Profile1) 11" --------
*set,_npilot,2125
_npilot2228=_npilot
et,41,170
type,41
real,41
mat,41
keyo,41,2,1         ! don't fix pilot node
keyo,41,4,111111
tshape,pilo
en,1203,2125        ! create pilot node for rigid link
tshape
en,1204,2125,2021
/com,*********** Create Remote Point "Internal Remote Point" ***********
! -------- Remote Point Used by "Chassis A Arms Spherical - Beam (Extracted Profile2) To Beam (Extracted Profile1) 12" --------
*set,_npilot,2126
_npilot2235=_npilot
et,42,170
type,42
real,42
mat,42
keyo,42,2,1         ! don't fix pilot node
keyo,42,4,111111
tshape,pilo
en,1205,2126        ! create pilot node for rigid link
tshape
en,1206,2126,400
/com,*********** Create Remote Point "Internal Remote Point 2" ***********
! -------- Remote Point Used by "Chassis A Arms Spherical - Beam (Extracted Profile2) To Beam (Extracted Profile1) 12" --------
*set,_npilot,2127
_npilot2236=_npilot
et,43,170
type,43
real,43
mat,43
keyo,43,2,1         ! don't fix pilot node
keyo,43,4,111111
tshape,pilo
en,1207,2127        ! create pilot node for rigid link
tshape
en,1208,2127,1873
/com,*********** Create Remote Point "Internal Remote Point" ***********
! -------- Remote Point Used by "Chassis A Arms Spherical - Beam (Extracted Profile2) To Beam (Extracted Profile1) 13" --------
*set,_npilot,2128
_npilot2243=_npilot
et,44,170
type,44
real,44
mat,44
keyo,44,2,1         ! don't fix pilot node
keyo,44,4,111111
tshape,pilo
en,1209,2128        ! create pilot node for rigid link
tshape
en,1210,2128,409
/com,*********** Create Remote Point "Internal Remote Point 2" ***********
! -------- Remote Point Used by "Chassis A Arms Spherical - Beam (Extracted Profile2) To Beam (Extracted Profile1) 13" --------
*set,_npilot,2129
_npilot2244=_npilot
et,45,170
type,45
real,45
mat,45
keyo,45,2,1         ! don't fix pilot node
keyo,45,4,111111
tshape,pilo
en,1211,2129        ! create pilot node for rigid link
tshape
en,1212,2129,1993
/com,*********** Create Remote Point "Internal Remote Point" ***********
! -------- Remote Point Used by "Chassis A Arms Spherical - Beam (Extracted Profile2) To Beam (Extracted Profile1) 14" --------
*set,_npilot,2130
_npilot2251=_npilot
et,46,170
type,46
real,46
mat,46
keyo,46,2,1         ! don't fix pilot node
keyo,46,4,111111
tshape,pilo
en,1213,2130        ! create pilot node for rigid link
tshape
en,1214,2130,730
/com,*********** Create Remote Point "Internal Remote Point 2" ***********
! -------- Remote Point Used by "Chassis A Arms Spherical - Beam (Extracted Profile2) To Beam (Extracted Profile1) 14" --------
*set,_npilot,2131
_npilot2252=_npilot
et,47,170
type,47
real,47
mat,47
keyo,47,2,1         ! don't fix pilot node
keyo,47,4,111111
tshape,pilo
en,1215,2131        ! create pilot node for rigid link
tshape
en,1216,2131,2002
/com,*********** Create Remote Point "Internal Remote Point" ***********
! -------- Remote Point Used by "Chassis A Arms Spherical - Beam (Extracted Profile2) To Beam (Extracted Profile1) 15" --------
*set,_npilot,2132
_npilot2259=_npilot
et,48,170
type,48
real,48
mat,48
keyo,48,2,1         ! don't fix pilot node
keyo,48,4,111111
tshape,pilo
en,1217,2132        ! create pilot node for rigid link
tshape
en,1218,2132,738
/com,*********** Create Remote Point "Internal Remote Point 2" ***********
! -------- Remote Point Used by "Chassis A Arms Spherical - Beam (Extracted Profile2) To Beam (Extracted Profile1) 15" --------
*set,_npilot,2133
_npilot2260=_npilot
et,49,170
type,49
real,49
mat,49
keyo,49,2,1         ! don't fix pilot node
keyo,49,4,111111
tshape,pilo
en,1219,2133        ! create pilot node for rigid link
tshape
en,1220,2133,1864
/com,*********** Create Remote Point "Internal Remote Point" ***********
! -------- Remote Point Used by "General - Beam (Extracted Profile2) To Beam (Extracted Profile1)" --------
*set,_npilot,2134
_npilot2267=_npilot
et,50,170
type,50
real,50
mat,50
keyo,50,2,1         ! don't fix pilot node
keyo,50,4,111111
tshape,pilo
en,1221,2134        ! create pilot node for rigid link
tshape
en,1222,2134,1765
/com,*********** Create Remote Point "Internal Remote Point 2" ***********
! -------- Remote Point Used by "General - Beam (Extracted Profile2) To Beam (Extracted Profile1)" --------
*set,_npilot,2135
_npilot2268=_npilot
et,51,170
type,51
real,51
mat,51
keyo,51,2,1         ! don't fix pilot node
keyo,51,4,111111
tshape,pilo
en,1223,2135        ! create pilot node for rigid link
tshape
en,1224,2135,1825
/com,*********** Create Remote Point "Internal Remote Point" ***********
! -------- Remote Point Used by "Fixed - Beam (Extracted Profile2) To Beam (Extracted Profile1)" --------
*set,_npilot,2136
_npilot2275=_npilot
et,52,170
type,52
real,52
mat,52
keyo,52,2,1         ! don't fix pilot node
keyo,52,4,111111
tshape,pilo
en,1225,2136        ! create pilot node for rigid link
tshape
en,1226,2136,1779
/com,*********** Create Remote Point "Internal Remote Point 2" ***********
! -------- Remote Point Used by "Fixed - Beam (Extracted Profile2) To Beam (Extracted Profile1)" --------
*set,_npilot,2137
_npilot2276=_npilot
et,53,170
type,53
real,53
mat,53
keyo,53,2,1         ! don't fix pilot node
keyo,53,4,111111
tshape,pilo
en,1227,2137        ! create pilot node for rigid link
tshape
en,1228,2137,1806
/com,*********** Create Remote Point "Internal Remote Point" ***********
! -------- Remote Point Used by "General - Beam (Extracted Profile2) To Beam (Extracted Profile1)" --------
*set,_npilot,2138
_npilot2283=_npilot
et,54,170
type,54
real,54
mat,54
keyo,54,2,1         ! don't fix pilot node
keyo,54,4,111111
tshape,pilo
en,1229,2138        ! create pilot node for rigid link
tshape
en,1230,2138,1772
/com,*********** Create Remote Point "Internal Remote Point 2" ***********
! -------- Remote Point Used by "General - Beam (Extracted Profile2) To Beam (Extracted Profile1)" --------
*set,_npilot,2139
_npilot2284=_npilot
et,55,170
type,55
real,55
mat,55
keyo,55,2,1         ! don't fix pilot node
keyo,55,4,111111
tshape,pilo
en,1231,2139        ! create pilot node for rigid link
tshape
en,1232,2139,1863
/com,*********** Create Remote Point "Internal Remote Point" ***********
! -------- Remote Point Used by "General - Beam (Extracted Profile2) To Beam (Extracted Profile1)" --------
*set,_npilot,2140
_npilot2291=_npilot
et,56,170
type,56
real,56
mat,56
keyo,56,2,1         ! don't fix pilot node
keyo,56,4,111111
tshape,pilo
en,1233,2140        ! create pilot node for rigid link
tshape
en,1234,2140,1758
/com,*********** Create Remote Point "Internal Remote Point 2" ***********
! -------- Remote Point Used by "General - Beam (Extracted Profile2) To Beam (Extracted Profile1)" --------
*set,_npilot,2141
_npilot2292=_npilot
et,57,170
type,57
real,57
mat,57
keyo,57,2,1         ! don't fix pilot node
keyo,57,4,111111
tshape,pilo
en,1235,2141        ! create pilot node for rigid link
tshape
en,1236,2141,1844
/com,*********** Create Remote Point "Internal Remote Point" ***********
! -------- Remote Point Used by "Upright Upper Upright Lower Spherical - Beam (Extracted Profile2) To Beam (Extracted Profile1)" --------
*set,_npilot,2142
_npilot2299=_npilot
et,58,170
type,58
real,58
mat,58
keyo,58,2,1         ! don't fix pilot node
keyo,58,4,111111
tshape,pilo
en,1237,2142        ! create pilot node for rigid link
tshape
en,1238,2142,1754
/com,*********** Create Remote Point "Internal Remote Point 2" ***********
! -------- Remote Point Used by "Upright Upper Upright Lower Spherical - Beam (Extracted Profile2) To Beam (Extracted Profile1)" --------
*set,_npilot,2143
_npilot2300=_npilot
et,59,170
type,59
real,59
mat,59
keyo,59,2,1         ! don't fix pilot node
keyo,59,4,111111
tshape,pilo
en,1239,2143        ! create pilot node for rigid link
tshape
en,1240,2143,1954
/com,*********** Create Remote Point "Internal Remote Point" ***********
! -------- Remote Point Used by "Upright Upper Upright Lower Spherical - Beam (Extracted Profile2) To Beam (Extracted Profile1) 2" --------
*set,_npilot,2144
_npilot2307=_npilot
et,60,170
type,60
real,60
mat,60
keyo,60,2,1         ! don't fix pilot node
keyo,60,4,111111
tshape,pilo
en,1241,2144        ! create pilot node for rigid link
tshape
en,1242,2144,1761
/com,*********** Create Remote Point "Internal Remote Point 2" ***********
! -------- Remote Point Used by "Upright Upper Upright Lower Spherical - Beam (Extracted Profile2) To Beam (Extracted Profile1) 2" --------
*set,_npilot,2145
_npilot2308=_npilot
et,61,170
type,61
real,61
mat,61
keyo,61,2,1         ! don't fix pilot node
keyo,61,4,111111
tshape,pilo
en,1243,2145        ! create pilot node for rigid link
tshape
en,1244,2145,1973
/com,*********** Create Remote Point "Internal Remote Point" ***********
! -------- Remote Point Used by "Upright Upper Upright Lower Spherical - Beam (Extracted Profile2) To Beam (Extracted Profile1) 3" --------
*set,_npilot,2146
_npilot2315=_npilot
et,62,170
type,62
real,62
mat,62
keyo,62,2,1         ! don't fix pilot node
keyo,62,4,111111
tshape,pilo
en,1245,2146        ! create pilot node for rigid link
tshape
en,1246,2146,1768
/com,*********** Create Remote Point "Internal Remote Point 2" ***********
! -------- Remote Point Used by "Upright Upper Upright Lower Spherical - Beam (Extracted Profile2) To Beam (Extracted Profile1) 3" --------
*set,_npilot,2147
_npilot2316=_npilot
et,63,170
type,63
real,63
mat,63
keyo,63,2,1         ! don't fix pilot node
keyo,63,4,111111
tshape,pilo
en,1247,2147        ! create pilot node for rigid link
tshape
en,1248,2147,1992
/com,*********** Create Remote Point "Internal Remote Point" ***********
! -------- Remote Point Used by "Upright Upper Upright Lower Spherical - Beam (Extracted Profile2) To Beam (Extracted Profile1) 4" --------
*set,_npilot,2148
_npilot2323=_npilot
et,64,170
type,64
real,64
mat,64
keyo,64,2,1         ! don't fix pilot node
keyo,64,4,111111
tshape,pilo
en,1249,2148        ! create pilot node for rigid link
tshape
en,1250,2148,1775
/com,*********** Create Remote Point "Internal Remote Point 2" ***********
! -------- Remote Point Used by "Upright Upper Upright Lower Spherical - Beam (Extracted Profile2) To Beam (Extracted Profile1) 4" --------
*set,_npilot,2149
_npilot2324=_npilot
et,65,170
type,65
real,65
mat,65
keyo,65,2,1         ! don't fix pilot node
keyo,65,4,111111
tshape,pilo
en,1251,2149        ! create pilot node for rigid link
tshape
en,1252,2149,2011
/com,*********** Create Remote Point "Internal Remote Point 3" ***********
! -------- Remote Point Used by "Longitudinal - Beam (Extracted Profile2) To Beam (Extracted Profile2)" --------
*set,_npilot,2150
_npilot2331=_npilot
et,66,170
type,66
real,66
mat,66
keyo,66,2,1         ! don't fix pilot node
keyo,66,4,111111
tshape,pilo
en,1253,2150        ! create pilot node for rigid link
tshape
en,1254,2150,1765
/com,*********** Create Remote Point "Internal Remote Point 4" ***********
! -------- Remote Point Used by "Longitudinal - Beam (Extracted Profile2) To Beam (Extracted Profile2)" --------
*set,_npilot,2151
_npilot2332=_npilot
et,67,170
type,67
real,67
mat,67
keyo,67,2,1         ! don't fix pilot node
keyo,67,4,111111
tshape,pilo
en,1255,2151        ! create pilot node for rigid link
tshape
en,1256,2151,264
/com,*********** Create Remote Point "Internal Remote Point 5" ***********
! -------- Remote Point Used by "Longitudinal - Beam (Extracted Profile2) To Beam (Extracted Profile2)" --------
*set,_npilot,2152
_npilot2334=_npilot
et,68,170
type,68
real,68
mat,68
keyo,68,2,1         ! don't fix pilot node
keyo,68,4,111111
tshape,pilo
en,1257,2152        ! create pilot node for rigid link
tshape
en,1258,2152,1758
/com,*********** Create Remote Point "Internal Remote Point 6" ***********
! -------- Remote Point Used by "Longitudinal - Beam (Extracted Profile2) To Beam (Extracted Profile2)" --------
*set,_npilot,2153
_npilot2335=_npilot
et,69,170
type,69
real,69
mat,69
keyo,69,2,1         ! don't fix pilot node
keyo,69,4,111111
tshape,pilo
en,1259,2153        ! create pilot node for rigid link
tshape
en,1260,2153,794
/com,*********** Create Remote Point "Internal Remote Point 7" ***********
! -------- Remote Point Used by "Longitudinal - Beam (Extracted Profile2) To Beam (Extracted Profile2)" --------
*set,_npilot,2154
_npilot2337=_npilot
et,70,170
type,70
real,70
mat,70
keyo,70,2,1         ! don't fix pilot node
keyo,70,4,111111
tshape,pilo
en,1261,2154        ! create pilot node for rigid link
tshape
en,1262,2154,1772
/com,*********** Create Remote Point "Internal Remote Point 8" ***********
! -------- Remote Point Used by "Longitudinal - Beam (Extracted Profile2) To Beam (Extracted Profile2)" --------
*set,_npilot,2155
_npilot2338=_npilot
et,71,170
type,71
real,71
mat,71
keyo,71,2,1         ! don't fix pilot node
keyo,71,4,111111
tshape,pilo
en,1263,2155        ! create pilot node for rigid link
tshape
en,1264,2155,423
/com,*********** Create Remote Point "Internal Remote Point 9" ***********
! -------- Remote Point Used by "Longitudinal - Beam (Extracted Profile2) To Beam (Extracted Profile2)" --------
*set,_npilot,2156
_npilot2340=_npilot
et,72,170
type,72
real,72
mat,72
keyo,72,2,1         ! don't fix pilot node
keyo,72,4,111111
tshape,pilo
en,1265,2156        ! create pilot node for rigid link
tshape
en,1266,2156,1779
/com,*********** Create Remote Point "Internal Remote Point 10" ***********
! -------- Remote Point Used by "Longitudinal - Beam (Extracted Profile2) To Beam (Extracted Profile2)" --------
*set,_npilot,2157
_npilot2341=_npilot
et,73,170
type,73
real,73
mat,73
keyo,73,2,1         ! don't fix pilot node
keyo,73,4,111111
tshape,pilo
en,1267,2157        ! create pilot node for rigid link
tshape
en,1268,2157,356
/com,*********** Create Remote Point "Internal Remote Point 11" ***********
! -------- Remote Point Used by "Remote Force" --------
*set,tid,75
*set,cid,74
et,cid,175
et,tid,170
keyo,tid,2,1               ! Don't fix the pilot node
keyo,tid,4,111111
keyo,cid,12,5              ! Bonded Contact 
keyo,cid,4,1               ! Deformable RBE3 style load
keyo,cid,2,2               ! MPC style contact
mat,74
real,74
type,74
en,1269,1761
en,1270,1762
en,1271,1763
en,1272,1764
en,1273,1765
en,1274,1766
en,1275,1767
*set,_npilot,2158
_npilot2357=_npilot
type,tid
mat ,cid
real,cid
tshape,pilo
en,1276,_npilot
tshape
/com,*********** Create Remote Point "Internal Remote Point 12" ***********
! -------- Remote Point Used by "Remote Force 2" --------
*set,tid,77
*set,cid,76
et,cid,175
et,tid,170
keyo,tid,2,1               ! Don't fix the pilot node
keyo,tid,4,111111
keyo,cid,12,5              ! Bonded Contact 
keyo,cid,4,1               ! Deformable RBE3 style load
keyo,cid,2,2               ! MPC style contact
mat,76
real,76
type,76
en,1277,1754
en,1278,1755
en,1279,1756
en,1280,1757
en,1281,1758
en,1282,1759
en,1283,1760
*set,_npilot,2159
_npilot2360=_npilot
type,tid
mat ,cid
real,cid
tshape,pilo
en,1284,_npilot
tshape
/com,*********** Create Remote Point "Internal Remote Point 13" ***********
! -------- Remote Point Used by "Remote Displacement" --------
*set,_npilot,2160
_npilot2363=_npilot
et,78,170
type,78
real,78
mat,78
keyo,78,2,1         ! don't fix pilot node
keyo,78,4,111111
tshape,pilo
en,1285,2160        ! create pilot node for rigid link
tshape
en,1286,2160,1765
/com,*********** Create Remote Point "Internal Remote Point 14" ***********
! -------- Remote Point Used by "Remote Displacement 2" --------
*set,_npilot,2161
_npilot2369=_npilot
et,79,170
type,79
real,79
mat,79
keyo,79,2,1         ! don't fix pilot node
keyo,79,4,111111
tshape,pilo
en,1287,2161        ! create pilot node for rigid link
tshape
en,1288,2161,1779
/com,*********** Create Remote Point "Internal Remote Point 15" ***********
! -------- Remote Point Used by "Remote Displacement 3" --------
*set,_npilot,2162
_npilot2372=_npilot
et,80,170
type,80
real,80
mat,80
keyo,80,2,1         ! don't fix pilot node
keyo,80,4,111111
tshape,pilo
en,1289,2162        ! create pilot node for rigid link
tshape
en,1290,2162,1772
/com,*********** Create Joint "Spherical - Beam (Extracted Profile2) To Beam (Extracted Profile1)" ***********
/com,            Real Constant Set For Above Joint Is 81
! Joint Element Type Declaration and Definition using MPC184
*set,_jid,81
et,_jid,184
keyo,_jid,1,15          ! Spherical Joint 
sectype,_jid, joint, sphe, _wbjoint
secjoint,,12,12
mat,_jid
real,_jid
type,_jid
secnum,_jid
en,1072,2102,2103      ! body to body joint
/com,*********** Create Joint "Chassis A Arms Spherical - Beam (Extracted Profile2) To Beam (Extracted Profile1)" ***********
/com,            Real Constant Set For Above Joint Is 82
! Joint Element Type Declaration and Definition using MPC184
*set,_jid,82
et,_jid,184
keyo,_jid,1,15          ! Spherical Joint 
sectype,_jid, joint, sphe, _wbjoint
secjoint,,13,13
mat,_jid
real,_jid
type,_jid
secnum,_jid
en,1073,2104,2105      ! body to body joint
/com,*********** Create Joint "Chassis A Arms Spherical - Beam (Extracted Profile2) To Beam (Extracted Profile1) 2" ***********
/com,            Real Constant Set For Above Joint Is 83
! Joint Element Type Declaration and Definition using MPC184
*set,_jid,83
et,_jid,184
keyo,_jid,1,15          ! Spherical Joint 
sectype,_jid, joint, sphe, _wbjoint
secjoint,,14,14
mat,_jid
real,_jid
type,_jid
secnum,_jid
en,1074,2106,2107      ! body to body joint
/com,*********** Create Joint "Chassis A Arms Spherical - Beam (Extracted Profile2) To Beam (Extracted Profile1) 3" ***********
/com,            Real Constant Set For Above Joint Is 84
! Joint Element Type Declaration and Definition using MPC184
*set,_jid,84
et,_jid,184
keyo,_jid,1,15          ! Spherical Joint 
sectype,_jid, joint, sphe, _wbjoint
secjoint,,15,15
mat,_jid
real,_jid
type,_jid
secnum,_jid
en,1075,2108,2109      ! body to body joint
/com,*********** Create Joint "Chassis A Arms Spherical - Beam (Extracted Profile2) To Beam (Extracted Profile1) 4" ***********
/com,            Real Constant Set For Above Joint Is 85
! Joint Element Type Declaration and Definition using MPC184
*set,_jid,85
et,_jid,184
keyo,_jid,1,15          ! Spherical Joint 
sectype,_jid, joint, sphe, _wbjoint
secjoint,,16,16
mat,_jid
real,_jid
type,_jid
secnum,_jid
en,1076,2110,2111      ! body to body joint
/com,*********** Create Joint "Chassis A Arms Spherical - Beam (Extracted Profile2) To Beam (Extracted Profile1) 5" ***********
/com,            Real Constant Set For Above Joint Is 86
! Joint Element Type Declaration and Definition using MPC184
*set,_jid,86
et,_jid,184
keyo,_jid,1,15          ! Spherical Joint 
sectype,_jid, joint, sphe, _wbjoint
secjoint,,17,17
mat,_jid
real,_jid
type,_jid
secnum,_jid
en,1077,2112,2113      ! body to body joint
/com,*********** Create Joint "Chassis A Arms Spherical - Beam (Extracted Profile2) To Beam (Extracted Profile1) 6" ***********
/com,            Real Constant Set For Above Joint Is 87
! Joint Element Type Declaration and Definition using MPC184
*set,_jid,87
et,_jid,184
keyo,_jid,1,15          ! Spherical Joint 
sectype,_jid, joint, sphe, _wbjoint
secjoint,,18,18
mat,_jid
real,_jid
type,_jid
secnum,_jid
en,1078,2114,2115      ! body to body joint
/com,*********** Create Joint "Chassis A Arms Spherical - Beam (Extracted Profile2) To Beam (Extracted Profile1) 7" ***********
/com,            Real Constant Set For Above Joint Is 88
! Joint Element Type Declaration and Definition using MPC184
*set,_jid,88
et,_jid,184
keyo,_jid,1,15          ! Spherical Joint 
sectype,_jid, joint, sphe, _wbjoint
secjoint,,19,19
mat,_jid
real,_jid
type,_jid
secnum,_jid
en,1079,2116,2117      ! body to body joint
/com,*********** Create Joint "Chassis A Arms Spherical - Beam (Extracted Profile2) To Beam (Extracted Profile1) 8" ***********
/com,            Real Constant Set For Above Joint Is 89
! Joint Element Type Declaration and Definition using MPC184
*set,_jid,89
et,_jid,184
keyo,_jid,1,15          ! Spherical Joint 
sectype,_jid, joint, sphe, _wbjoint
secjoint,,20,20
mat,_jid
real,_jid
type,_jid
secnum,_jid
en,1080,2118,2119      ! body to body joint
/com,*********** Create Joint "Chassis A Arms Spherical - Beam (Extracted Profile2) To Beam (Extracted Profile1) 9" ***********
/com,            Real Constant Set For Above Joint Is 90
! Joint Element Type Declaration and Definition using MPC184
*set,_jid,90
et,_jid,184
keyo,_jid,1,15          ! Spherical Joint 
sectype,_jid, joint, sphe, _wbjoint
secjoint,,21,21
mat,_jid
real,_jid
type,_jid
secnum,_jid
en,1081,2120,2121      ! body to body joint
/com,*********** Create Joint "Chassis A Arms Spherical - Beam (Extracted Profile2) To Beam (Extracted Profile1) 10" ***********
/com,            Real Constant Set For Above Joint Is 91
! Joint Element Type Declaration and Definition using MPC184
*set,_jid,91
et,_jid,184
keyo,_jid,1,15          ! Spherical Joint 
sectype,_jid, joint, sphe, _wbjoint
secjoint,,22,22
mat,_jid
real,_jid
type,_jid
secnum,_jid
en,1082,2122,2123      ! body to body joint
/com,*********** Create Joint "Chassis A Arms Spherical - Beam (Extracted Profile2) To Beam (Extracted Profile1) 11" ***********
/com,            Real Constant Set For Above Joint Is 92
! Joint Element Type Declaration and Definition using MPC184
*set,_jid,92
et,_jid,184
keyo,_jid,1,15          ! Spherical Joint 
sectype,_jid, joint, sphe, _wbjoint
secjoint,,23,23
mat,_jid
real,_jid
type,_jid
secnum,_jid
en,1083,2124,2125      ! body to body joint
/com,*********** Create Joint "Chassis A Arms Spherical - Beam (Extracted Profile2) To Beam (Extracted Profile1) 12" ***********
/com,            Real Constant Set For Above Joint Is 93
! Joint Element Type Declaration and Definition using MPC184
*set,_jid,93
et,_jid,184
keyo,_jid,1,15          ! Spherical Joint 
sectype,_jid, joint, sphe, _wbjoint
secjoint,,24,24
mat,_jid
real,_jid
type,_jid
secnum,_jid
en,1084,2126,2127      ! body to body joint
/com,*********** Create Joint "Chassis A Arms Spherical - Beam (Extracted Profile2) To Beam (Extracted Profile1) 13" ***********
/com,            Real Constant Set For Above Joint Is 94
! Joint Element Type Declaration and Definition using MPC184
*set,_jid,94
et,_jid,184
keyo,_jid,1,15          ! Spherical Joint 
sectype,_jid, joint, sphe, _wbjoint
secjoint,,25,25
mat,_jid
real,_jid
type,_jid
secnum,_jid
en,1085,2128,2129      ! body to body joint
/com,*********** Create Joint "Chassis A Arms Spherical - Beam (Extracted Profile2) To Beam (Extracted Profile1) 14" ***********
/com,            Real Constant Set For Above Joint Is 95
! Joint Element Type Declaration and Definition using MPC184
*set,_jid,95
et,_jid,184
keyo,_jid,1,15          ! Spherical Joint 
sectype,_jid, joint, sphe, _wbjoint
secjoint,,26,26
mat,_jid
real,_jid
type,_jid
secnum,_jid
en,1086,2130,2131      ! body to body joint
/com,*********** Create Joint "Chassis A Arms Spherical - Beam (Extracted Profile2) To Beam (Extracted Profile1) 15" ***********
/com,            Real Constant Set For Above Joint Is 96
! Joint Element Type Declaration and Definition using MPC184
*set,_jid,96
et,_jid,184
keyo,_jid,1,15          ! Spherical Joint 
sectype,_jid, joint, sphe, _wbjoint
secjoint,,27,27
mat,_jid
real,_jid
type,_jid
secnum,_jid
en,1087,2132,2133      ! body to body joint
/com,*********** Create Joint "General - Beam (Extracted Profile2) To Beam (Extracted Profile1)" ***********
/com,            Real Constant Set For Above Joint Is 97
! Joint Element Type Declaration and Definition using MPC184
*set,_jid,97
et,_jid,184
keyo,_jid,1,16          ! General Joint
sectype,_jid, joint, gene, _wbjoint
secjoint,,28,28
secjoint,rdof,1,2,3,5,6
mat,_jid
real,_jid
type,_jid
secnum,_jid
en,1088,2134,2135      ! body to body joint
/com,*********** Create Joint "Fixed - Beam (Extracted Profile2) To Beam (Extracted Profile1)" ***********
/com,            Real Constant Set For Above Joint Is 98
! Joint Element Type Declaration and Definition using MPC184
*set,_jid,98
et,_jid,184
keyo,_jid,1,13          ! Fixed Joint
sectype,_jid, joint, weld, _wbjoint
secjoint,,29,29
mat,_jid
real,_jid
type,_jid
secnum,_jid
en,1089,2136,2137      ! body to body joint
/com,*********** Create Joint "General - Beam (Extracted Profile2) To Beam (Extracted Profile1)" ***********
/com,            Real Constant Set For Above Joint Is 99
! Joint Element Type Declaration and Definition using MPC184
*set,_jid,99
et,_jid,184
keyo,_jid,1,16          ! General Joint
sectype,_jid, joint, gene, _wbjoint
secjoint,,30,30
secjoint,rdof,1,2,3,5,6
mat,_jid
real,_jid
type,_jid
secnum,_jid
en,1090,2138,2139      ! body to body joint
/com,*********** Create Joint "General - Beam (Extracted Profile2) To Beam (Extracted Profile1)" ***********
/com,            Real Constant Set For Above Joint Is 100
! Joint Element Type Declaration and Definition using MPC184
*set,_jid,100
et,_jid,184
keyo,_jid,1,16          ! General Joint
sectype,_jid, joint, gene, _wbjoint
secjoint,,31,31
secjoint,rdof,1,2,3,5,6
mat,_jid
real,_jid
type,_jid
secnum,_jid
en,1091,2140,2141      ! body to body joint
/com,*********** Create Joint "Upright Upper Upright Lower Spherical - Beam (Extracted Profile2) To Beam (Extracted Profile1)" ***********
/com,            Real Constant Set For Above Joint Is 101
! Joint Element Type Declaration and Definition using MPC184
*set,_jid,101
et,_jid,184
keyo,_jid,1,15          ! Spherical Joint 
sectype,_jid, joint, sphe, _wbjoint
secjoint,,32,32
mat,_jid
real,_jid
type,_jid
secnum,_jid
en,1092,2142,2143      ! body to body joint
/com,*********** Create Joint "Upright Upper Upright Lower Spherical - Beam (Extracted Profile2) To Beam (Extracted Profile1) 2" ***********
/com,            Real Constant Set For Above Joint Is 102
! Joint Element Type Declaration and Definition using MPC184
*set,_jid,102
et,_jid,184
keyo,_jid,1,15          ! Spherical Joint 
sectype,_jid, joint, sphe, _wbjoint
secjoint,,33,33
mat,_jid
real,_jid
type,_jid
secnum,_jid
en,1093,2144,2145      ! body to body joint
/com,*********** Create Joint "Upright Upper Upright Lower Spherical - Beam (Extracted Profile2) To Beam (Extracted Profile1) 3" ***********
/com,            Real Constant Set For Above Joint Is 103
! Joint Element Type Declaration and Definition using MPC184
*set,_jid,103
et,_jid,184
keyo,_jid,1,15          ! Spherical Joint 
sectype,_jid, joint, sphe, _wbjoint
secjoint,,34,34
mat,_jid
real,_jid
type,_jid
secnum,_jid
en,1094,2146,2147      ! body to body joint
/com,*********** Create Joint "Upright Upper Upright Lower Spherical - Beam (Extracted Profile2) To Beam (Extracted Profile1) 4" ***********
/com,            Real Constant Set For Above Joint Is 104
! Joint Element Type Declaration and Definition using MPC184
*set,_jid,104
et,_jid,184
keyo,_jid,1,15          ! Spherical Joint 
sectype,_jid, joint, sphe, _wbjoint
secjoint,,35,35
mat,_jid
real,_jid
type,_jid
secnum,_jid
en,1095,2148,2149      ! body to body joint
/com,*********** Create Spring Connection "Longitudinal - Beam (Extracted Profile2) To Beam (Extracted Profile2)" ***********
/com,            Real Constant Set For Above Spring Connection Is 105
*set,_sid,105
et,_sid,14            ! Combin14, Spring-Damper Element
mat,_sid
real,_sid
type,_sid
keyo,_sid,3,0           ! longitudinal  spring/damper
r,_sid,35000.,0.
en,1068,2150,2151
/com,*********** Create Spring Connection "Longitudinal - Beam (Extracted Profile2) To Beam (Extracted Profile2)" ***********
/com,            Real Constant Set For Above Spring Connection Is 106
*set,_sid,106
et,_sid,14            ! Combin14, Spring-Damper Element
mat,_sid
real,_sid
type,_sid
keyo,_sid,3,0           ! longitudinal  spring/damper
r,_sid,35000.,0.
en,1069,2152,2153
/com,*********** Create Spring Connection "Longitudinal - Beam (Extracted Profile2) To Beam (Extracted Profile2)" ***********
/com,            Real Constant Set For Above Spring Connection Is 107
*set,_sid,107
et,_sid,14            ! Combin14, Spring-Damper Element
mat,_sid
real,_sid
type,_sid
keyo,_sid,3,0           ! longitudinal  spring/damper
r,_sid,35000.,0.
en,1070,2154,2155
/com,*********** Create Spring Connection "Longitudinal - Beam (Extracted Profile2) To Beam (Extracted Profile2)" ***********
/com,            Real Constant Set For Above Spring Connection Is 108
*set,_sid,108
et,_sid,14            ! Combin14, Spring-Damper Element
mat,_sid
real,_sid
type,_sid
keyo,_sid,3,0           ! longitudinal  spring/damper
r,_sid,35000.,0.
en,1071,2156,2157
/com,*********** Construct Remote Force ***********
/com,*********** Construct Remote Force ***********
/com,*********** Construct Remote Displacement ***********
/com,*********** Construct Remote Displacement ***********
/com,*********** Construct Remote Displacement ***********

/COM,*** Create a component for all remote displacements ***
CMBLOCK,REMOTEDISPALL,NODE,        2
(8i10)
      2160     -2162

/gst,on,on
fini
*get,_numnode,node,0,count
*get,_numelem,elem,0,count
*get, _MAXELEMNUM, elem, 0, NUM, MAX
*get, _MAXNODENUM, node, 0, NUM, MAX
*get, _MAXELEMTYPE, etyp, 0, NUM, MAX
*get, _MAXREALCONST, rcon, 0, NUM, MAX
/go
/wb,load,end               !  done creating loads
/com,--- Number of total nodes = %_numnode%
/com,--- Number of contact elements = 14
/com,--- Number of spring elements = 0
/com,--- Number of bearing elements = 0
/com,--- Number of solid elements = 1067
/com,--- Number of condensed parts = 0
/com,--- Number of total elements = %_numelem%
*get,_wallbsol,active,,time,wall
/com,****************************************************************************
/com,*************************    SOLUTION       ********************************
/com,****************************************************************************
/solu
antype,0                   ! static analysis
_thickRatio=  0     ! Ratio of thick parts in the model
eqsl,sparse,,,,,1
irlf,1
cntr,print,1               ! print out contact info and also make no initial contact an error
nldiag,cont,iter           ! print out contact info each equilibrium iteration
rescontrol,,none                 ! Do not keep any restart files
/com,****************************************************
/com,******************* SOLVE FOR LS 1 OF 1 ****************
f,2158,fx,8.08964586687173e-013
f,2158,fy,1000.
f,2158,fz,0.
f,2159,fx,1.00392502470903e-009
f,2159,fy,-1000.
f,2159,fz,3.64681245271226e-009
d,2160,uz,0.
d,2161,ux,0.
d,2161,uy,0.
d,2161,uz,0.
d,2161,rotx,0.
d,2161,roty,0.
d,2161,rotz,0.
d,2162,ux,0.
d,2162,uy,0.
d,2162,uz,0.
/nopr
/gopr
nsub,1,1,1
time,1.
outres,erase
outres,all,none
outres,nsol,all,
outres,rsol,all
outres,eangl,all
outres,etmp,all
outres,veng,all
outres,strs,all,
outres,epel,all,
outres,eppl,all,
outres,cont,all,
/nopr
esel,s,type,,1
esel,a,type,,2,17
esel,a,type,,81,108
cm,_elmisc,elem
esel,all
/gopr
outres,misc,all,_elmisc
! *********** WB SOLVE COMMAND ***********
! check interactive state
*get,ANSINTER_,active,,int
*if,ANSINTER_,ne,0,then
/eof
*endif
solve
/com *************** Write FE CONNECTORS ********* 
CEWRITE,file,ce,,INTE
irlist
/com,****************************************************
/com,*************** FINISHED SOLVE FOR LS 1 *************
fini
*get,_wallasol,active,,time,wall
/nopr
*get,_numnode,node,0,count
*get,_numelem,elem,0,count
*get, _MAXELEMNUM, elem, 0, NUM, MAX
*get, _MAXNODENUM, node, 0, NUM, MAX,,,INTERNAL
*get, _MAXELEMTYPE, etyp, 0, NUM, MAX
*get, _MAXREALCONST, rcon, 0, NUM, MAX
*get,_NSOLTHREADS,active,0,ntfs
*get,_NSOLPROCESSES,active,0,npfs
/gopr
/post1
xmlo,ENCODING,ISO-8859-1
xmlo,parm
/xml,parm,xml
fini
/gopr
*get,_walldone,active,,time,wall
_preptime=(_wallbsol-_wallstrt)*3600
_solvtime=(_wallasol-_wallbsol)*3600
_posttime=(_walldone-_wallasol)*3600
_totaltim=(_walldone-_wallstrt)*3600
*get,_dlbratio,active,0,solu,dlbr
*get,_combtime,active,0,solu,comb
*get,_ssmode,active,0,solu,ssmm
*get,_ndofs,active,0,solu,ndof
/com,--- Total number of nodes = %_numnode%
/com,--- Total number of elements = %_numelem%
/com,--- Element load balance ratio = %_dlbratio%
/com,--- Time to combine distributed files = %_combtime%
/com,--- Sparse memory mode = %_ssmode%
/com,--- Number of DOF = %_ndofs%
/wb,file,end               ! done with WB generated input
